[root]								[root]
type=Root							type=Root
children=system							children=system
eventq_index=0							eventq_index=0
full_system=false						full_system=false
sim_quantum=0							sim_quantum=0
time_sync_enable=false						time_sync_enable=false
time_sync_period=100000000000					time_sync_period=100000000000
time_sync_spin_threshold=100000000				time_sync_spin_threshold=100000000

[system]							[system]
type=System							type=System
children=clk_domain cpu cpu_clk_domain cpu_voltage_domain dvf	children=clk_domain cpu cpu_clk_domain cpu_voltage_domain dvf
auto_unlink_shared_backstore=false				auto_unlink_shared_backstore=false
cache_line_size=64						cache_line_size=64
eventq_index=0							eventq_index=0
exit_on_work_items=false					exit_on_work_items=false
init_param=0							init_param=0
m5ops_base=0							m5ops_base=0
mem_mode=timing							mem_mode=timing
mem_ranges=0:2147483648						mem_ranges=0:2147483648
memories=system.mem_ctrls.dram					memories=system.mem_ctrls.dram
mmap_using_noreserve=false					mmap_using_noreserve=false
multi_thread=false						multi_thread=false
num_work_ids=16							num_work_ids=16
readfile=							readfile=
redirect_paths=system.redirect_paths0 system.redirect_paths1 	redirect_paths=system.redirect_paths0 system.redirect_paths1 
shadow_rom_ranges=						shadow_rom_ranges=
shared_backstore=						shared_backstore=
symbolfile=							symbolfile=
thermal_components=						thermal_components=
thermal_model=Null						thermal_model=Null
work_begin_ckpt_count=0						work_begin_ckpt_count=0
work_begin_cpu_id_exit=-1					work_begin_cpu_id_exit=-1
work_begin_exit_count=0						work_begin_exit_count=0
work_cpus_ckpt_count=0						work_cpus_ckpt_count=0
work_end_ckpt_count=0						work_end_ckpt_count=0
work_end_exit_count=0						work_end_exit_count=0
work_item_id=-1							work_item_id=-1
workload=system.workload					workload=system.workload
system_port=system.membus.cpu_side_ports[0]			system_port=system.membus.cpu_side_ports[0]

[system.clk_domain]						[system.clk_domain]
type=SrcClockDomain						type=SrcClockDomain
clock=1000							clock=1000
domain_id=-1							domain_id=-1
eventq_index=0							eventq_index=0
init_perf_level=0						init_perf_level=0
voltage_domain=system.voltage_domain				voltage_domain=system.voltage_domain

[system.cpu]							[system.cpu]
type=BaseO3CPU							type=BaseO3CPU
children=branchPred dcache decoder dtb_walker_cache fuPool ic |	children=branchPred dcache decoder fuPool icache interrupts i
LFSTSize=1024							LFSTSize=1024
LQEntries=32							LQEntries=32
LSQCheckLoads=true						LSQCheckLoads=true
LSQDepCheckShift=4						LSQDepCheckShift=4
SQEntries=32							SQEntries=32
SSITSize=1024							SSITSize=1024
activity=0							activity=0
backComSize=7							backComSize=7
branchPred=system.cpu.branchPred				branchPred=system.cpu.branchPred
cacheLoadPorts=200						cacheLoadPorts=200
cacheStorePorts=200						cacheStorePorts=200
checker=Null							checker=Null
clk_domain=system.cpu_clk_domain				clk_domain=system.cpu_clk_domain
commitToDecodeDelay=1						commitToDecodeDelay=1
commitToFetchDelay=1						commitToFetchDelay=1
commitToIEWDelay=1						commitToIEWDelay=1
commitToRenameDelay=1						commitToRenameDelay=1
commitWidth=4							commitWidth=4
cpu_id=0							cpu_id=0
decodeToFetchDelay=1						decodeToFetchDelay=1
decodeToRenameDelay=1						decodeToRenameDelay=1
decodeWidth=4							decodeWidth=4
decoder=system.cpu.decoder					decoder=system.cpu.decoder
dispatchWidth=4							dispatchWidth=4
do_checkpoint_insts=true					do_checkpoint_insts=true
do_statistics_insts=true					do_statistics_insts=true
eventq_index=0							eventq_index=0
fetchBufferSize=64						fetchBufferSize=64
fetchQueueSize=32						fetchQueueSize=32
fetchToDecodeDelay=1						fetchToDecodeDelay=1
fetchTrapLatency=1						fetchTrapLatency=1
fetchWidth=4							fetchWidth=4
forwardComSize=7						forwardComSize=7
fuPool=system.cpu.fuPool					fuPool=system.cpu.fuPool
function_trace=false						function_trace=false
function_trace_start=0						function_trace_start=0
iewToCommitDelay=1						iewToCommitDelay=1
iewToDecodeDelay=1						iewToDecodeDelay=1
iewToFetchDelay=1						iewToFetchDelay=1
iewToRenameDelay=1						iewToRenameDelay=1
interrupts=system.cpu.interrupts				interrupts=system.cpu.interrupts
isa=system.cpu.isa						isa=system.cpu.isa
issueToExecuteDelay=1						issueToExecuteDelay=1
issueWidth=4							issueWidth=4
max_insts_all_threads=0						max_insts_all_threads=0
max_insts_any_thread=0						max_insts_any_thread=0
mmu=system.cpu.mmu						mmu=system.cpu.mmu
needsTSO=true						      |	needsTSO=false
numIQEntries=64							numIQEntries=64
numPhysCCRegs=1280						numPhysCCRegs=1280
numPhysFloatRegs=256						numPhysFloatRegs=256
numPhysIntRegs=256						numPhysIntRegs=256
numPhysMatRegs=2						numPhysMatRegs=2
numPhysVecPredRegs=32						numPhysVecPredRegs=32
numPhysVecRegs=256						numPhysVecRegs=256
numROBEntries=192						numROBEntries=192
numRobs=1							numRobs=1
numThreads=1							numThreads=1
power_gating_on_idle=false					power_gating_on_idle=false
power_model=							power_model=
power_state=system.cpu.power_state				power_state=system.cpu.power_state
progress_interval=0						progress_interval=0
pwr_gating_latency=300						pwr_gating_latency=300
renameToDecodeDelay=1						renameToDecodeDelay=1
renameToFetchDelay=1						renameToFetchDelay=1
renameToIEWDelay=2						renameToIEWDelay=2
renameToROBDelay=1						renameToROBDelay=1
renameWidth=4							renameWidth=4
simpoint_start_insts=						simpoint_start_insts=
smtCommitPolicy=RoundRobin					smtCommitPolicy=RoundRobin
smtFetchPolicy=RoundRobin					smtFetchPolicy=RoundRobin
smtIQPolicy=Partitioned						smtIQPolicy=Partitioned
smtIQThreshold=100						smtIQThreshold=100
smtLSQPolicy=Partitioned					smtLSQPolicy=Partitioned
smtLSQThreshold=100						smtLSQThreshold=100
smtNumFetchingThreads=1						smtNumFetchingThreads=1
smtROBPolicy=Partitioned					smtROBPolicy=Partitioned
smtROBThreshold=100						smtROBThreshold=100
socket_id=0							socket_id=0
squashWidth=4							squashWidth=4
store_set_clear_period=250000					store_set_clear_period=250000
switched_out=false						switched_out=false
syscallRetryLatency=10000					syscallRetryLatency=10000
system=system							system=system
tracer=system.cpu.tracer					tracer=system.cpu.tracer
trapLatency=13							trapLatency=13
wbWidth=4							wbWidth=4
workload=system.cpu.workload					workload=system.cpu.workload
dcache_port=system.cpu.dcache.cpu_side				dcache_port=system.cpu.dcache.cpu_side
icache_port=system.cpu.icache.cpu_side				icache_port=system.cpu.icache.cpu_side

[system.cpu.branchPred]						[system.cpu.branchPred]
type=TournamentBP						type=TournamentBP
children=btb indirectBranchPred ras				children=btb indirectBranchPred ras
btb=system.cpu.branchPred.btb					btb=system.cpu.branchPred.btb
choiceCtrBits=2							choiceCtrBits=2
choicePredictorSize=8192					choicePredictorSize=8192
eventq_index=0							eventq_index=0
globalCtrBits=2							globalCtrBits=2
globalPredictorSize=8192					globalPredictorSize=8192
indirectBranchPred=system.cpu.branchPred.indirectBranchPred	indirectBranchPred=system.cpu.branchPred.indirectBranchPred
instShiftAmt=2							instShiftAmt=2
localCtrBits=2							localCtrBits=2
localHistoryTableSize=2048					localHistoryTableSize=2048
localPredictorSize=2048						localPredictorSize=2048
numThreads=1							numThreads=1
ras=system.cpu.branchPred.ras					ras=system.cpu.branchPred.ras
requiresBTBHit=false						requiresBTBHit=false

[system.cpu.branchPred.btb]					[system.cpu.branchPred.btb]
type=SimpleBTB							type=SimpleBTB
children=power_state						children=power_state
clk_domain=system.cpu_clk_domain				clk_domain=system.cpu_clk_domain
eventq_index=0							eventq_index=0
instShiftAmt=2							instShiftAmt=2
numEntries=4096							numEntries=4096
numThreads=1							numThreads=1
power_model=							power_model=
power_state=system.cpu.branchPred.btb.power_state		power_state=system.cpu.branchPred.btb.power_state
tagBits=16							tagBits=16

[system.cpu.branchPred.btb.power_state]				[system.cpu.branchPred.btb.power_state]
type=PowerState							type=PowerState
clk_gate_bins=20						clk_gate_bins=20
clk_gate_max=1000000000000					clk_gate_max=1000000000000
clk_gate_min=1000						clk_gate_min=1000
default_state=UNDEFINED						default_state=UNDEFINED
eventq_index=0							eventq_index=0
leaders=							leaders=
possible_states=						possible_states=

[system.cpu.branchPred.indirectBranchPred]			[system.cpu.branchPred.indirectBranchPred]
type=SimpleIndirectPredictor					type=SimpleIndirectPredictor
eventq_index=0							eventq_index=0
indirectGHRBits=13						indirectGHRBits=13
indirectHashGHR=true						indirectHashGHR=true
indirectHashTargets=true					indirectHashTargets=true
indirectPathLength=3						indirectPathLength=3
indirectSets=256						indirectSets=256
indirectTagSize=16						indirectTagSize=16
indirectWays=2							indirectWays=2
instShiftAmt=2							instShiftAmt=2
numThreads=1							numThreads=1
speculativePathLength=256					speculativePathLength=256

[system.cpu.branchPred.ras]					[system.cpu.branchPred.ras]
type=ReturnAddrStack						type=ReturnAddrStack
eventq_index=0							eventq_index=0
numEntries=16							numEntries=16
numThreads=1							numThreads=1

[system.cpu.dcache]						[system.cpu.dcache]
type=Cache							type=Cache
children=power_state replacement_policy tags			children=power_state replacement_policy tags
addr_ranges=0:18446744073709551615				addr_ranges=0:18446744073709551615
assoc=8								assoc=8
clk_domain=system.cpu_clk_domain				clk_domain=system.cpu_clk_domain
clusivity=mostly_incl						clusivity=mostly_incl
compressor=Null							compressor=Null
data_latency=2							data_latency=2
demand_mshr_reserve=1						demand_mshr_reserve=1
eventq_index=0							eventq_index=0
is_read_only=false						is_read_only=false
max_miss_count=0						max_miss_count=0
move_contractions=true						move_contractions=true
mshrs=4								mshrs=4
power_model=							power_model=
power_state=system.cpu.dcache.power_state			power_state=system.cpu.dcache.power_state
prefetcher=Null							prefetcher=Null
replace_expansions=true						replace_expansions=true
replacement_policy=system.cpu.dcache.replacement_policy		replacement_policy=system.cpu.dcache.replacement_policy
response_latency=2						response_latency=2
sequential_access=false						sequential_access=false
size=32768							size=32768
system=system							system=system
tag_latency=2							tag_latency=2
tags=system.cpu.dcache.tags					tags=system.cpu.dcache.tags
tgts_per_mshr=20						tgts_per_mshr=20
warmup_percentage=0						warmup_percentage=0
write_allocator=Null						write_allocator=Null
write_buffers=8							write_buffers=8
writeback_clean=false						writeback_clean=false
cpu_side=system.cpu.dcache_port					cpu_side=system.cpu.dcache_port
mem_side=system.tol2bus.cpu_side_ports[1]			mem_side=system.tol2bus.cpu_side_ports[1]

[system.cpu.dcache.power_state]					[system.cpu.dcache.power_state]
type=PowerState							type=PowerState
clk_gate_bins=20						clk_gate_bins=20
clk_gate_max=1000000000000					clk_gate_max=1000000000000
clk_gate_min=1000						clk_gate_min=1000
default_state=UNDEFINED						default_state=UNDEFINED
eventq_index=0							eventq_index=0
leaders=							leaders=
possible_states=						possible_states=

[system.cpu.dcache.replacement_policy]				[system.cpu.dcache.replacement_policy]
type=LRURP							type=LRURP
eventq_index=0							eventq_index=0

[system.cpu.dcache.tags]					[system.cpu.dcache.tags]
type=BaseSetAssoc						type=BaseSetAssoc
children=indexing_policy power_state				children=indexing_policy power_state
assoc=8								assoc=8
block_size=64							block_size=64
clk_domain=system.cpu_clk_domain				clk_domain=system.cpu_clk_domain
entry_size=64							entry_size=64
eventq_index=0							eventq_index=0
indexing_policy=system.cpu.dcache.tags.indexing_policy		indexing_policy=system.cpu.dcache.tags.indexing_policy
power_model=							power_model=
power_state=system.cpu.dcache.tags.power_state			power_state=system.cpu.dcache.tags.power_state
replacement_policy=system.cpu.dcache.replacement_policy		replacement_policy=system.cpu.dcache.replacement_policy
sequential_access=false						sequential_access=false
size=32768							size=32768
system=system							system=system
tag_latency=2							tag_latency=2
warmup_percentage=0						warmup_percentage=0

[system.cpu.dcache.tags.indexing_policy]			[system.cpu.dcache.tags.indexing_policy]
type=SetAssociative						type=SetAssociative
assoc=8								assoc=8
entry_size=64							entry_size=64
eventq_index=0							eventq_index=0
size=32768							size=32768

[system.cpu.dcache.tags.power_state]				[system.cpu.dcache.tags.power_state]
type=PowerState							type=PowerState
clk_gate_bins=20						clk_gate_bins=20
clk_gate_max=1000000000000					clk_gate_max=1000000000000
clk_gate_min=1000						clk_gate_min=1000
default_state=UNDEFINED						default_state=UNDEFINED
eventq_index=0							eventq_index=0
leaders=							leaders=
possible_states=						possible_states=

[system.cpu.decoder]						[system.cpu.decoder]
type=X86Decoder						      |	type=ArmDecoder
							      >	dvm_enabled=false
eventq_index=0							eventq_index=0
isa=system.cpu.isa						isa=system.cpu.isa

[system.cpu.dtb_walker_cache]				      <
type=Cache						      <
children=power_state replacement_policy tags		      <
addr_ranges=0:18446744073709551615			      <
assoc=2							      <
clk_domain=system.cpu_clk_domain			      <
clusivity=mostly_incl					      <
compressor=Null						      <
data_latency=2						      <
demand_mshr_reserve=1					      <
eventq_index=0						      <
is_read_only=false					      <
max_miss_count=0					      <
move_contractions=true					      <
mshrs=10						      <
power_model=						      <
power_state=system.cpu.dtb_walker_cache.power_state	      <
prefetcher=Null						      <
replace_expansions=true					      <
replacement_policy=system.cpu.dtb_walker_cache.replacement_po <
response_latency=2					      <
sequential_access=false					      <
size=1024						      <
system=system						      <
tag_latency=2						      <
tags=system.cpu.dtb_walker_cache.tags			      <
tgts_per_mshr=12					      <
warmup_percentage=0					      <
write_allocator=Null					      <
write_buffers=8						      <
writeback_clean=false					      <
cpu_side=system.cpu.mmu.dtb.walker.port			      <
mem_side=system.tol2bus.cpu_side_ports[3]		      <
							      <
[system.cpu.dtb_walker_cache.power_state]		      <
type=PowerState						      <
clk_gate_bins=20					      <
clk_gate_max=1000000000000				      <
clk_gate_min=1000					      <
default_state=UNDEFINED					      <
eventq_index=0						      <
leaders=						      <
possible_states=					      <
							      <
[system.cpu.dtb_walker_cache.replacement_policy]	      <
type=LRURP						      <
eventq_index=0						      <
							      <
[system.cpu.dtb_walker_cache.tags]			      <
type=BaseSetAssoc					      <
children=indexing_policy power_state			      <
assoc=2							      <
block_size=64						      <
clk_domain=system.cpu_clk_domain			      <
entry_size=64						      <
eventq_index=0						      <
indexing_policy=system.cpu.dtb_walker_cache.tags.indexing_pol <
power_model=						      <
power_state=system.cpu.dtb_walker_cache.tags.power_state      <
replacement_policy=system.cpu.dtb_walker_cache.replacement_po <
sequential_access=false					      <
size=1024						      <
system=system						      <
tag_latency=2						      <
warmup_percentage=0					      <
							      <
[system.cpu.dtb_walker_cache.tags.indexing_policy]	      <
type=SetAssociative					      <
assoc=2							      <
entry_size=64						      <
eventq_index=0						      <
size=1024						      <
							      <
[system.cpu.dtb_walker_cache.tags.power_state]		      <
type=PowerState						      <
clk_gate_bins=20					      <
clk_gate_max=1000000000000				      <
clk_gate_min=1000					      <
default_state=UNDEFINED					      <
eventq_index=0						      <
leaders=						      <
possible_states=					      <
							      <
[system.cpu.fuPool]						[system.cpu.fuPool]
type=FUPool							type=FUPool
children=FUList0 FUList1 FUList2 FUList3 FUList4 FUList5 FULi	children=FUList0 FUList1 FUList2 FUList3 FUList4 FUList5 FULi
FUList=system.cpu.fuPool.FUList0 system.cpu.fuPool.FUList1 sy	FUList=system.cpu.fuPool.FUList0 system.cpu.fuPool.FUList1 sy
eventq_index=0							eventq_index=0

[system.cpu.fuPool.FUList0]					[system.cpu.fuPool.FUList0]
type=FUDesc							type=FUDesc
children=opList							children=opList
count=6								count=6
eventq_index=0							eventq_index=0
opList=system.cpu.fuPool.FUList0.opList				opList=system.cpu.fuPool.FUList0.opList

[system.cpu.fuPool.FUList0.opList]				[system.cpu.fuPool.FUList0.opList]
type=OpDesc							type=OpDesc
eventq_index=0							eventq_index=0
opClass=IntAlu							opClass=IntAlu
opLat=1								opLat=1
pipelined=true							pipelined=true

[system.cpu.fuPool.FUList1]					[system.cpu.fuPool.FUList1]
type=FUDesc							type=FUDesc
children=opList0 opList1					children=opList0 opList1
count=2								count=2
eventq_index=0							eventq_index=0
opList=system.cpu.fuPool.FUList1.opList0 system.cpu.fuPool.FU	opList=system.cpu.fuPool.FUList1.opList0 system.cpu.fuPool.FU

[system.cpu.fuPool.FUList1.opList0]				[system.cpu.fuPool.FUList1.opList0]
type=OpDesc							type=OpDesc
eventq_index=0							eventq_index=0
opClass=IntMult							opClass=IntMult
opLat=3								opLat=3
pipelined=true							pipelined=true

[system.cpu.fuPool.FUList1.opList1]				[system.cpu.fuPool.FUList1.opList1]
type=OpDesc							type=OpDesc
eventq_index=0							eventq_index=0
opClass=IntDiv							opClass=IntDiv
opLat=1							      |	opLat=20
pipelined=false							pipelined=false

[system.cpu.fuPool.FUList2]					[system.cpu.fuPool.FUList2]
type=FUDesc							type=FUDesc
children=opList0 opList1 opList2				children=opList0 opList1 opList2
count=4								count=4
eventq_index=0							eventq_index=0
opList=system.cpu.fuPool.FUList2.opList0 system.cpu.fuPool.FU	opList=system.cpu.fuPool.FUList2.opList0 system.cpu.fuPool.FU

[system.cpu.fuPool.FUList2.opList0]				[system.cpu.fuPool.FUList2.opList0]
type=OpDesc							type=OpDesc
eventq_index=0							eventq_index=0
opClass=FloatAdd						opClass=FloatAdd
opLat=2								opLat=2
pipelined=true							pipelined=true

[system.cpu.fuPool.FUList2.opList1]				[system.cpu.fuPool.FUList2.opList1]
type=OpDesc							type=OpDesc
eventq_index=0							eventq_index=0
opClass=FloatCmp						opClass=FloatCmp
opLat=2								opLat=2
pipelined=true							pipelined=true

[system.cpu.fuPool.FUList2.opList2]				[system.cpu.fuPool.FUList2.opList2]
type=OpDesc							type=OpDesc
eventq_index=0							eventq_index=0
opClass=FloatCvt						opClass=FloatCvt
opLat=2								opLat=2
pipelined=true							pipelined=true

[system.cpu.fuPool.FUList3]					[system.cpu.fuPool.FUList3]
type=FUDesc							type=FUDesc
children=opList0 opList1 opList2 opList3 opList4		children=opList0 opList1 opList2 opList3 opList4
count=2								count=2
eventq_index=0							eventq_index=0
opList=system.cpu.fuPool.FUList3.opList0 system.cpu.fuPool.FU	opList=system.cpu.fuPool.FUList3.opList0 system.cpu.fuPool.FU

[system.cpu.fuPool.FUList3.opList0]				[system.cpu.fuPool.FUList3.opList0]
type=OpDesc							type=OpDesc
eventq_index=0							eventq_index=0
opClass=FloatMult						opClass=FloatMult
opLat=4								opLat=4
pipelined=true							pipelined=true

[system.cpu.fuPool.FUList3.opList1]				[system.cpu.fuPool.FUList3.opList1]
type=OpDesc							type=OpDesc
eventq_index=0							eventq_index=0
opClass=FloatMultAcc						opClass=FloatMultAcc
opLat=5								opLat=5
pipelined=true							pipelined=true

[system.cpu.fuPool.FUList3.opList2]				[system.cpu.fuPool.FUList3.opList2]
type=OpDesc							type=OpDesc
eventq_index=0							eventq_index=0
opClass=FloatMisc						opClass=FloatMisc
opLat=3								opLat=3
pipelined=true							pipelined=true

[system.cpu.fuPool.FUList3.opList3]				[system.cpu.fuPool.FUList3.opList3]
type=OpDesc							type=OpDesc
eventq_index=0							eventq_index=0
opClass=FloatDiv						opClass=FloatDiv
opLat=12							opLat=12
pipelined=false							pipelined=false

[system.cpu.fuPool.FUList3.opList4]				[system.cpu.fuPool.FUList3.opList4]
type=OpDesc							type=OpDesc
eventq_index=0							eventq_index=0
opClass=FloatSqrt						opClass=FloatSqrt
opLat=24							opLat=24
pipelined=false							pipelined=false

[system.cpu.fuPool.FUList4]					[system.cpu.fuPool.FUList4]
type=FUDesc							type=FUDesc
children=opList0 opList1					children=opList0 opList1
count=0								count=0
eventq_index=0							eventq_index=0
opList=system.cpu.fuPool.FUList4.opList0 system.cpu.fuPool.FU	opList=system.cpu.fuPool.FUList4.opList0 system.cpu.fuPool.FU

[system.cpu.fuPool.FUList4.opList0]				[system.cpu.fuPool.FUList4.opList0]
type=OpDesc							type=OpDesc
eventq_index=0							eventq_index=0
opClass=MemRead							opClass=MemRead
opLat=1								opLat=1
pipelined=true							pipelined=true

[system.cpu.fuPool.FUList4.opList1]				[system.cpu.fuPool.FUList4.opList1]
type=OpDesc							type=OpDesc
eventq_index=0							eventq_index=0
opClass=FloatMemRead						opClass=FloatMemRead
opLat=1								opLat=1
pipelined=true							pipelined=true

[system.cpu.fuPool.FUList5]					[system.cpu.fuPool.FUList5]
type=FUDesc							type=FUDesc
children=opList00 opList01 opList02 opList03 opList04 opList0	children=opList00 opList01 opList02 opList03 opList04 opList0
count=4								count=4
eventq_index=0							eventq_index=0
opList=system.cpu.fuPool.FUList5.opList00 system.cpu.fuPool.F	opList=system.cpu.fuPool.FUList5.opList00 system.cpu.fuPool.F

[system.cpu.fuPool.FUList5.opList00]				[system.cpu.fuPool.FUList5.opList00]
type=OpDesc							type=OpDesc
eventq_index=0							eventq_index=0
opClass=SimdAdd							opClass=SimdAdd
opLat=1								opLat=1
pipelined=true							pipelined=true

[system.cpu.fuPool.FUList5.opList01]				[system.cpu.fuPool.FUList5.opList01]
type=OpDesc							type=OpDesc
eventq_index=0							eventq_index=0
opClass=SimdAddAcc						opClass=SimdAddAcc
opLat=1								opLat=1
pipelined=true							pipelined=true

[system.cpu.fuPool.FUList5.opList02]				[system.cpu.fuPool.FUList5.opList02]
type=OpDesc							type=OpDesc
eventq_index=0							eventq_index=0
opClass=SimdAlu							opClass=SimdAlu
opLat=1								opLat=1
pipelined=true							pipelined=true

[system.cpu.fuPool.FUList5.opList03]				[system.cpu.fuPool.FUList5.opList03]
type=OpDesc							type=OpDesc
eventq_index=0							eventq_index=0
opClass=SimdCmp							opClass=SimdCmp
opLat=1								opLat=1
pipelined=true							pipelined=true

[system.cpu.fuPool.FUList5.opList04]				[system.cpu.fuPool.FUList5.opList04]
type=OpDesc							type=OpDesc
eventq_index=0							eventq_index=0
opClass=SimdCvt							opClass=SimdCvt
opLat=1								opLat=1
pipelined=true							pipelined=true

[system.cpu.fuPool.FUList5.opList05]				[system.cpu.fuPool.FUList5.opList05]
type=OpDesc							type=OpDesc
eventq_index=0							eventq_index=0
opClass=SimdMisc						opClass=SimdMisc
opLat=1								opLat=1
pipelined=true							pipelined=true

[system.cpu.fuPool.FUList5.opList06]				[system.cpu.fuPool.FUList5.opList06]
type=OpDesc							type=OpDesc
eventq_index=0							eventq_index=0
opClass=SimdMult						opClass=SimdMult
opLat=1								opLat=1
pipelined=true							pipelined=true

[system.cpu.fuPool.FUList5.opList07]				[system.cpu.fuPool.FUList5.opList07]
type=OpDesc							type=OpDesc
eventq_index=0							eventq_index=0
opClass=SimdMultAcc						opClass=SimdMultAcc
opLat=1								opLat=1
pipelined=true							pipelined=true

[system.cpu.fuPool.FUList5.opList08]				[system.cpu.fuPool.FUList5.opList08]
type=OpDesc							type=OpDesc
eventq_index=0							eventq_index=0
opClass=SimdMatMultAcc						opClass=SimdMatMultAcc
opLat=1								opLat=1
pipelined=true							pipelined=true

[system.cpu.fuPool.FUList5.opList09]				[system.cpu.fuPool.FUList5.opList09]
type=OpDesc							type=OpDesc
eventq_index=0							eventq_index=0
opClass=SimdShift						opClass=SimdShift
opLat=1								opLat=1
pipelined=true							pipelined=true

[system.cpu.fuPool.FUList5.opList10]				[system.cpu.fuPool.FUList5.opList10]
type=OpDesc							type=OpDesc
eventq_index=0							eventq_index=0
opClass=SimdShiftAcc						opClass=SimdShiftAcc
opLat=1								opLat=1
pipelined=true							pipelined=true

[system.cpu.fuPool.FUList5.opList11]				[system.cpu.fuPool.FUList5.opList11]
type=OpDesc							type=OpDesc
eventq_index=0							eventq_index=0
opClass=SimdDiv							opClass=SimdDiv
opLat=1								opLat=1
pipelined=true							pipelined=true

[system.cpu.fuPool.FUList5.opList12]				[system.cpu.fuPool.FUList5.opList12]
type=OpDesc							type=OpDesc
eventq_index=0							eventq_index=0
opClass=SimdSqrt						opClass=SimdSqrt
opLat=1								opLat=1
pipelined=true							pipelined=true

[system.cpu.fuPool.FUList5.opList13]				[system.cpu.fuPool.FUList5.opList13]
type=OpDesc							type=OpDesc
eventq_index=0							eventq_index=0
opClass=SimdFloatAdd						opClass=SimdFloatAdd
opLat=1								opLat=1
pipelined=true							pipelined=true

[system.cpu.fuPool.FUList5.opList14]				[system.cpu.fuPool.FUList5.opList14]
type=OpDesc							type=OpDesc
eventq_index=0							eventq_index=0
opClass=SimdFloatAlu						opClass=SimdFloatAlu
opLat=1								opLat=1
pipelined=true							pipelined=true

[system.cpu.fuPool.FUList5.opList15]				[system.cpu.fuPool.FUList5.opList15]
type=OpDesc							type=OpDesc
eventq_index=0							eventq_index=0
opClass=SimdFloatCmp						opClass=SimdFloatCmp
opLat=1								opLat=1
pipelined=true							pipelined=true

[system.cpu.fuPool.FUList5.opList16]				[system.cpu.fuPool.FUList5.opList16]
type=OpDesc							type=OpDesc
eventq_index=0							eventq_index=0
opClass=SimdFloatCvt						opClass=SimdFloatCvt
opLat=1								opLat=1
pipelined=true							pipelined=true

[system.cpu.fuPool.FUList5.opList17]				[system.cpu.fuPool.FUList5.opList17]
type=OpDesc							type=OpDesc
eventq_index=0							eventq_index=0
opClass=SimdFloatDiv						opClass=SimdFloatDiv
opLat=1								opLat=1
pipelined=true							pipelined=true

[system.cpu.fuPool.FUList5.opList18]				[system.cpu.fuPool.FUList5.opList18]
type=OpDesc							type=OpDesc
eventq_index=0							eventq_index=0
opClass=SimdFloatMisc						opClass=SimdFloatMisc
opLat=1								opLat=1
pipelined=true							pipelined=true

[system.cpu.fuPool.FUList5.opList19]				[system.cpu.fuPool.FUList5.opList19]
type=OpDesc							type=OpDesc
eventq_index=0							eventq_index=0
opClass=SimdFloatMult						opClass=SimdFloatMult
opLat=1								opLat=1
pipelined=true							pipelined=true

[system.cpu.fuPool.FUList5.opList20]				[system.cpu.fuPool.FUList5.opList20]
type=OpDesc							type=OpDesc
eventq_index=0							eventq_index=0
opClass=SimdFloatMultAcc					opClass=SimdFloatMultAcc
opLat=1								opLat=1
pipelined=true							pipelined=true

[system.cpu.fuPool.FUList5.opList21]				[system.cpu.fuPool.FUList5.opList21]
type=OpDesc							type=OpDesc
eventq_index=0							eventq_index=0
opClass=SimdFloatMatMultAcc					opClass=SimdFloatMatMultAcc
opLat=1								opLat=1
pipelined=true							pipelined=true

[system.cpu.fuPool.FUList5.opList22]				[system.cpu.fuPool.FUList5.opList22]
type=OpDesc							type=OpDesc
eventq_index=0							eventq_index=0
opClass=SimdFloatSqrt						opClass=SimdFloatSqrt
opLat=1								opLat=1
pipelined=true							pipelined=true

[system.cpu.fuPool.FUList5.opList23]				[system.cpu.fuPool.FUList5.opList23]
type=OpDesc							type=OpDesc
eventq_index=0							eventq_index=0
opClass=SimdReduceAdd						opClass=SimdReduceAdd
opLat=1								opLat=1
pipelined=true							pipelined=true

[system.cpu.fuPool.FUList5.opList24]				[system.cpu.fuPool.FUList5.opList24]
type=OpDesc							type=OpDesc
eventq_index=0							eventq_index=0
opClass=SimdReduceAlu						opClass=SimdReduceAlu
opLat=1								opLat=1
pipelined=true							pipelined=true

[system.cpu.fuPool.FUList5.opList25]				[system.cpu.fuPool.FUList5.opList25]
type=OpDesc							type=OpDesc
eventq_index=0							eventq_index=0
opClass=SimdReduceCmp						opClass=SimdReduceCmp
opLat=1								opLat=1
pipelined=true							pipelined=true

[system.cpu.fuPool.FUList5.opList26]				[system.cpu.fuPool.FUList5.opList26]
type=OpDesc							type=OpDesc
eventq_index=0							eventq_index=0
opClass=SimdFloatReduceAdd					opClass=SimdFloatReduceAdd
opLat=1								opLat=1
pipelined=true							pipelined=true

[system.cpu.fuPool.FUList5.opList27]				[system.cpu.fuPool.FUList5.opList27]
type=OpDesc							type=OpDesc
eventq_index=0							eventq_index=0
opClass=SimdFloatReduceCmp					opClass=SimdFloatReduceCmp
opLat=1								opLat=1
pipelined=true							pipelined=true

[system.cpu.fuPool.FUList6]					[system.cpu.fuPool.FUList6]
type=FUDesc							type=FUDesc
children=opList							children=opList
count=1								count=1
eventq_index=0							eventq_index=0
opList=system.cpu.fuPool.FUList6.opList				opList=system.cpu.fuPool.FUList6.opList

[system.cpu.fuPool.FUList6.opList]				[system.cpu.fuPool.FUList6.opList]
type=OpDesc							type=OpDesc
eventq_index=0							eventq_index=0
opClass=SimdPredAlu						opClass=SimdPredAlu
opLat=1								opLat=1
pipelined=true							pipelined=true

[system.cpu.fuPool.FUList7]					[system.cpu.fuPool.FUList7]
type=FUDesc							type=FUDesc
children=opList0 opList1					children=opList0 opList1
count=0								count=0
eventq_index=0							eventq_index=0
opList=system.cpu.fuPool.FUList7.opList0 system.cpu.fuPool.FU	opList=system.cpu.fuPool.FUList7.opList0 system.cpu.fuPool.FU

[system.cpu.fuPool.FUList7.opList0]				[system.cpu.fuPool.FUList7.opList0]
type=OpDesc							type=OpDesc
eventq_index=0							eventq_index=0
opClass=MemWrite						opClass=MemWrite
opLat=1								opLat=1
pipelined=true							pipelined=true

[system.cpu.fuPool.FUList7.opList1]				[system.cpu.fuPool.FUList7.opList1]
type=OpDesc							type=OpDesc
eventq_index=0							eventq_index=0
opClass=FloatMemWrite						opClass=FloatMemWrite
opLat=1								opLat=1
pipelined=true							pipelined=true

[system.cpu.fuPool.FUList8]					[system.cpu.fuPool.FUList8]
type=FUDesc							type=FUDesc
children=opList0 opList1 opList2 opList3			children=opList0 opList1 opList2 opList3